20

 C   -2.572875596438    1.251572061468   -0.505066691351
 C   -1.932412781719    0.018720071928   -1.144950877501
 C   -1.714502458267   -1.151175345970   -0.179703026937
 C   -0.717815962876   -0.897650890065    0.956093683386
 N    0.554245773910   -0.358454557045    0.505586982941
 N    0.846833936429    0.912263899459    0.695118513313
 N    1.990385656013    1.145552098428    0.194913731502
 C    2.474709730531    0.005666221833   -0.344141327282
 C    1.553567150355   -0.973045433968   -0.147573247179
 H   -2.778409428569    2.006697748420   -1.256780688009
 H   -1.924067713563    1.701796714943    0.237169809389
 H   -3.515458404149    0.998701520204   -0.026017720743
 H   -2.569464125091   -0.334982026493   -1.951178190058
 H   -0.987708151479    0.295219481509   -1.602120110723
 H   -2.658471260253   -1.436994511990    0.278310195448
 H   -1.379114724508   -2.015137154120   -0.749035925687
 H   -1.103063883091   -0.177268002422    1.661861397075
 H   -0.525069691683   -1.817129394022    1.495098918226
 H    3.430811117543   -0.034032489707   -0.818898265976
 H    1.528701467893   -2.010104241246   -0.402744630793
