20

 C   -2.238010411224    1.221369054420   -0.630005117476
 C   -1.943831245369   -0.210583859879   -1.081974486706
 C   -1.824895737584   -1.224128978526    0.064380074764
 C   -0.531687606931   -1.208933815213    0.924285321562
 N    0.567631166537   -0.393968368153    0.434214743797
 N    0.827116130714    0.777931047157    0.979176058966
 N    1.842271351414    1.279697839750    0.406004802345
 C    2.278465882370    0.422410024333   -0.542859634810
 C    1.463370104106   -0.663642761810   -0.529625995061
 H   -2.331050790759    1.881036326192   -1.487066281216
 H   -1.456731641029    1.615234189551    0.007546605254
 H   -3.174042242503    1.264096957398   -0.079353233530
 H   -2.754826818915   -0.546010034366   -1.722762408613
 H   -1.049106486309   -0.229095780320   -1.694850640145
 H   -2.670839284017   -1.102963896659    0.734036889532
 H   -1.923332321278   -2.218904810417   -0.361085887028
 H   -0.738410868248   -0.823927405391    1.911209780145
 H   -0.157060326190   -2.216927009684    1.043945372753
 H    3.130012539097    0.637341529771   -1.150855891539
 H    1.447623609362   -1.568229447796   -1.097803100389
