20

 C   -2.459340928523    1.258457566966   -0.509618230729
 C   -1.913736725090   -0.037756138217   -1.111894843241
 C   -1.749986864886   -1.178542230524   -0.101854709867
 C   -0.673412584263   -0.978616845692    0.976282726221
 N    0.553358152179   -0.370655659162    0.489654513307
 N    0.835251124040    0.885834370484    0.767609142771
 N    1.940794397302    1.186130398502    0.220066117201
 C    2.412369177838    0.105261362358   -0.438562909609
 C    1.522660003255   -0.907042936706   -0.269305315698
 H   -2.592160842620    2.010847984923   -1.280125578211
 H   -1.788250009028    1.669574947351    0.234818206619
 H   -3.426342611908    1.092741524148   -0.041754196605
 H   -2.592665925460   -0.381929612191   -1.887481334313
 H   -0.965538934775    0.156745393563   -1.601974127928
 H   -2.690522325636   -1.362142295253    0.411069117552
 H   -1.522608865693   -2.089742782025   -0.650541807027
 H   -1.024213258015   -0.317740622542    1.754815893854
 H   -0.425536299033   -1.926573154781    1.437171542598
 H    3.338093235923    0.126736812398   -0.971147202606
 H    1.500615205373   -1.920186255709   -0.607508362158
