20

 C   -3.127378207023    1.167155328733   -0.446266553729
 C   -2.120614777195    0.255527289672   -1.149199585040
 C   -1.645647816900   -0.927839720436   -0.297517027381
 C   -0.761393896386   -0.550535304089    0.896122851425
 N    0.620194924055   -0.294875418965    0.522068411315
 N    1.040803883232    0.936255053529    0.312448602371
 N    2.261830801256    0.895669120598   -0.034742003403
 C    2.667798420193   -0.392279983172   -0.060864500284
 C    1.613377605767   -1.170072992328    0.297308120361
 H   -3.468378225063    1.946746420407   -1.119401480351
 H   -2.698727346101    1.658822148264    0.420771417905
 H   -4.000273604656    0.609212353584   -0.117647378007
 H   -2.578750136227   -0.142071911199   -2.050846566409
 H   -1.263842408574    0.839239176196   -1.472024331321
 H   -2.515070110719   -1.455019899009    0.089599954786
 H   -1.105982694569   -1.637901654072   -0.916948441971
 H   -1.112743566358    0.337251700815    1.398207762567
 H   -0.749941347616   -1.355994318034    1.620094599459
 H    3.667008177730   -0.665361851915   -0.321818800667
 H    1.493489846789   -2.225426786523    0.411810447276
