20

 C   -2.413825252526    0.876602036476   -2.150859723467
 C   -2.612490638834   -0.438506408784   -1.395153301564
 C   -1.663491390856   -0.623646148089   -0.204423274720
 C   -0.207592960717   -0.913892709129   -0.615781924683
 N    0.770412542581   -0.235522763827    0.215752591104
 N    1.149327173289   -0.765765551476    1.359934295515
 N    1.956287127234    0.033359069058    1.929468653469
 C    2.115935959165    1.125766500236    1.151280803656
 C    1.351260906492    0.962193973066    0.040344986380
 H   -3.120655932813    0.960801083375   -2.969822725904
 H   -1.418008105624    0.961283712265   -2.576421710306
 H   -2.565616556104    1.727853034750   -1.493558961604
 H   -3.634115407240   -0.478515892397   -1.028423175640
 H   -2.508062883804   -1.275872143564   -2.082947721417
 H   -1.682037713623    0.276358361505    0.402211942020
 H   -2.016658421001   -1.427016701382    0.432337011652
 H    0.010737722946   -1.970208605134   -0.561462639135
 H   -0.019765672627   -0.595212442147   -1.632395944729
 H    2.758892454344    1.931487512044    1.431538448086
 H    1.183259874859    1.567684589836   -0.823585082127
