20

 C   -2.322301240676    0.859461851268   -2.046307559649
 C   -2.568676886739   -0.496244494612   -1.382829871570
 C   -1.657135256634   -0.780484411924   -0.183009525463
 C   -0.182979668692   -1.036582284760   -0.562812644415
 N    0.760174328255   -0.248891777164    0.211417606256
 N    1.130194931326   -0.652560180122    1.408828881664
 N    1.904751779924    0.221098851546    1.909888220770
 C    2.052678152514    1.234269946231    1.029384549180
 C    1.315153037134    0.939947013093   -0.072997755492
 H   -3.012251160207    1.017548714799   -2.868738717277
 H   -1.317360865018    0.942204322616   -2.450413083224
 H   -2.460681039734    1.669730429423   -1.336492305864
 H   -3.600285239414   -0.537432520137   -1.045403790408
 H   -2.461761941184   -1.289648406769   -2.120202480374
 H   -1.701006928826    0.057097801139    0.505287431967
 H   -2.033048159657   -1.639699196246    0.361366533109
 H    0.082730930320   -2.072041353977   -0.411017240938
 H   -0.000478237308   -0.804930432978   -1.603567370694
 H    2.669199165522    2.081075237912    1.238919251301
 H    1.149985267472    1.451865928898   -0.995671337790
