20

 C   -2.323055701523    0.846897174313   -2.049367664716
 C   -2.575497664398   -0.499465321417   -1.369166758296
 C   -1.661715505389   -0.775088371404   -0.168956435809
 C   -0.189942767914   -1.042279788170   -0.550306676727
 N    0.759280974206   -0.250056469355    0.211850427878
 N    1.133899316261   -0.642954389004    1.411494046765
 N    1.914616832859    0.232209063959    1.900243223037
 C    2.060034702764    1.237041829430    1.009798232733
 C    1.315163932897    0.935145785074   -0.085695511097
 H   -3.015792893651    1.000437271558   -2.870318932553
 H   -1.319514063696    0.917987536659   -2.459164781715
 H   -2.452377760989    1.666246173992   -1.348322239619
 H   -3.606242463078   -0.530278419933   -1.027925529062
 H   -2.475911247033   -1.302259425160   -2.097424150795
 H   -1.699625133774    0.070596432303    0.509680809509
 H   -2.039820304786   -1.626084429792    0.386609871994
 H    0.071436953236   -2.077324290686   -0.388276335353
 H   -0.009715294036   -0.822686666641   -1.594114667263
 H    2.680183962439    2.083881015521    1.208195591954
 H    1.146212905118    1.439310375965   -1.011987716024
