20

 C   -3.668607846395    0.937504498201   -0.316819262668
 C   -2.527070876421    0.713069585982   -1.310729356147
 C   -1.421902680256   -0.215882171535   -0.799384708553
 C   -0.669694797316    0.348709375082    0.414461965075
 N    0.709861251655   -0.102288609478    0.478194914293
 N    1.642521089503    0.530393798044   -0.203081463918
 N    2.747753955197   -0.073681433933   -0.037092234434
 C    2.549047856171   -1.138243209876    0.769621724893
 C    1.232862165168   -1.166823184400    1.106234469560
 H   -4.441623922389    1.563835043599   -0.749841182539
 H   -3.326571434512    1.427357700465    0.590500190262
 H   -4.128334127416   -0.004698229013   -0.030975777119
 H   -2.932409408476    0.290417139994   -2.225504599052
 H   -2.085788123106    1.668210263710   -1.584048678893
 H   -1.828405400595   -1.195718864272   -0.561572733766
 H   -0.700773764833   -0.359371635669   -1.596575967599
 H   -0.625270445117    1.427735242040    0.361175492536
 H   -1.146836328796    0.082991417725    1.348116540778
 H    3.346036594040   -1.791409571254    1.050986588099
 H    0.651519499142   -1.822459243784    1.717243381120
