20

 C   -2.086232830868    1.012360478565   -0.828873608931
 C   -1.952010145009   -0.489530000745   -1.085403633072
 C   -1.741812361456   -1.346162542845    0.172981761590
 C   -0.313453602002   -1.438566607192    0.764095260335
 N    0.617463891234   -0.386129090432    0.395278667681
 N    0.750703490025    0.679115432589    1.159890816016
 N    1.613263601466    1.450092187966    0.636098791132
 C    2.077400044028    0.883853811927   -0.499590935410
 C    1.440861860476   -0.304643306659   -0.662436747529
 H   -2.285425565608    1.535870018302   -1.758843649564
 H   -1.195833246113    1.441377093112   -0.389977109450
 H   -2.915360521491    1.211422982422   -0.155752595206
 H   -2.865632669020   -0.836912760571   -1.560170224325
 H   -1.158427506340   -0.672238577148   -1.805184126881
 H   -2.408610562515   -0.972676488415    0.944336705555
 H   -2.059267145070   -2.364314067288   -0.030075328319
 H   -0.349799810599   -1.446941877538    1.842581383929
 H    0.148178268047   -2.365588221675    0.448501281794
 H    2.821947803121    1.354582731953   -1.103802848373
 H    1.506209845418   -1.068044742677   -1.406442273376
