20

 C   -2.501644273975    0.904030365774   -2.240990524353
 C   -2.635010664549   -0.379993266119   -1.420177121664
 C   -1.650607082236   -0.479875364392   -0.247892972863
 C   -0.206908355151   -0.769158816258   -0.686709509255
 N    0.783435504936   -0.213026700251    0.217702607790
 N    1.142717290252   -0.875492761011    1.297536202769
 N    1.967600569663   -0.166246296004    1.953564757758
 C    2.160265517957    1.000062934220    1.300184320562
 C    1.396788308268    0.980532472436    0.176670203874
 H   -3.237023605219    0.928020530827   -3.038510245641
 H   -1.523709887705    0.999873297121   -2.703168455534
 H   -2.660281455690    1.779886564059   -1.618532418614
 H   -3.644708710469   -0.435629897067   -1.024233260675
 H   -2.521233160244   -1.244757848916   -2.071462495008
 H   -1.666968074817    0.454451928043    0.305717898342
 H   -1.967055869716   -1.251981985797    0.444732282687
 H   -0.022902725893   -1.831955656445   -0.745560256342
 H   -0.004551259144   -0.347664573165   -1.662105820701
 H    2.823094291234    1.752353071087    1.668672404073
 H    1.249325274373    1.681365346414   -0.615927647727
