20

 C   -2.909867298275    1.216955779655   -0.485087077024
 C   -2.040815949511    0.163246625090   -1.173142933450
 C   -1.662954840787   -1.025123484328   -0.281583048216
 C   -0.765893288409   -0.686794519691    0.910918304069
 N    0.586592118393   -0.322948631781    0.521766913137
 N    0.948582284650    0.943075920428    0.469997926633
 N    2.154996566250    1.004442793925    0.078008379154
 C    2.610294855478   -0.248175945426   -0.141955910033
 C    1.603045726829   -1.113924690359    0.141740064579
 H   -3.226077738839    1.971563953475   -1.197732621376
 H   -2.374827686442    1.729254173036    0.306953303073
 H   -3.804590954279    0.772070734637   -0.057144501183
 H   -2.575142632952   -0.226515116789   -2.035620984752
 H   -1.140365173365    0.632578946653   -1.557655214933
 H   -2.570117741951   -1.476875140770    0.114541401328
 H   -1.174659872884   -1.790320969123   -0.878869167323
 H   -1.151074017213    0.141967441531    1.483997343450
 H   -0.693901473002   -1.540968535477    1.573340640503
 H    3.607578635580   -0.437833137826   -0.474506750879
 H    1.529942033476   -2.179288378593    0.112336353134
