20

 C   -3.519640659825    1.017938907404   -0.349311327505
 C   -2.351930382253    0.458355651600   -1.163083643191
 C   -1.573316259282   -0.650973291571   -0.446713089754
 C   -0.746846879551   -0.159225692032    0.760911704692
 N    0.686233714661   -0.198547309743    0.523652630941
 N    1.283490896701    0.803008270118   -0.087897337826
 N    2.511322622055    0.512767254902   -0.239088307326
 C    2.739695535045   -0.712227955804    0.280953399288
 C    1.563975592503   -1.182525129982    0.774001626583
 H   -4.041933465128    1.789350058745   -0.905595112964
 H   -3.192267480460    1.461579428779    0.586422331988
 H   -4.237562513687    0.237903499016   -0.111070309640
 H   -2.736396269062    0.058999113036   -2.097459786828
 H   -1.667606633934    1.259199303216   -1.429261717708
 H   -2.272583414720   -1.413059280310   -0.112477721427
 H   -0.902494314154   -1.134482236098   -1.147727571469
 H   -0.984117980556    0.862620023314    1.015852204275
 H   -0.933474084352   -0.765832029778    1.637026226548
 H    3.709915672741   -1.159040436996    0.271657485522
 H    1.291781345160   -2.090983108039    1.265623960561
