20

 C   -2.051703459318    0.906804500829   -0.996670526633
 C   -1.990664555047   -0.615912000252   -1.138836706113
 C   -1.639293502900   -1.373864714634    0.152557208232
 C   -0.147244180842   -1.589806648901    0.422346807142
 N    0.670574027709   -0.393317098957    0.321391014249
 N    0.628939785978    0.518855012309    1.269705057222
 N    1.409771581583    1.470230157661    0.953198511422
 C    1.989116627209    1.186078932260   -0.233450530531
 C    1.517786388201   -0.018455704937   -0.649802699314
 H   -2.338050724300    1.361620127048   -1.940165264891
 H   -1.105518546549    1.335896847383   -0.694594747183
 H   -2.792884707626    1.191280550652   -0.255751980659
 H   -2.962644573110   -0.962978130728   -1.477807823123
 H   -1.290338233107   -0.885707210976   -1.927515929286
 H   -2.079092225842   -0.861469818016    1.002576669403
 H   -2.083448885260   -2.365514621764    0.128052357323
 H   -0.002233535736   -1.999983725597    1.412074430846
 H    0.259370939997   -2.295832382249   -0.291170468000
 H    2.691237614113    1.846870061240   -0.693172787835
 H    1.707530767153   -0.614711925625   -1.515264530705
