20

 C   -2.609956907160    0.932454706837   -2.405945005762
 C   -2.671401827790   -0.230929968734   -1.413718816286
 C   -1.618076614753   -0.175133358418   -0.300901412552
 C   -0.194900307106   -0.439368032385   -0.795455350791
 N    0.803305632967   -0.158456298372    0.221421685352
 N    1.092474120220   -1.062190716055    1.134698877144
 N    1.945025662193   -0.570043180580    1.937372751130
 C    2.229212331127    0.694064385918    1.555466426677
 C    1.494143622664    0.970433978212    0.447066144469
 H   -3.420327257680    0.864936032140   -3.124341727506
 H   -1.682522721583    0.946784726474   -2.969744605589
 H   -2.702094631505    1.886231730000   -1.894001525937
 H   -3.652470621722   -0.238986960411   -0.948153405717
 H   -2.586941993896   -1.173657235954   -1.950635673609
 H   -1.649132172792    0.802350398064    0.173955703016
 H   -1.850970669302   -0.902933367425    0.468999424867
 H   -0.072775020328   -1.473086287297   -1.086684233854
 H    0.047138330276    0.177870926131   -1.649881014401
 H    2.929779488864    1.301498047960    2.085796157135
 H    1.412499339329    1.834399826792   -0.175856143823
