20

 C   -3.255663198252    1.196266440138   -0.484133822913
 C   -2.163591983039    0.390266255912   -1.188947409087
 C   -1.636746440021   -0.793179264060   -0.367858986124
 C   -0.786632920451   -0.397650465216    0.849308365405
 N    0.628999081931   -0.279729782591    0.539574610878
 N    1.141383232303    0.879973043059    0.181546621297
 N    2.373613990770    0.716916832187   -0.080585860771
 C    2.692652603808   -0.582526346188    0.102536432544
 C    1.570710339669   -1.235917854646    0.502366105077
 H   -3.611193526720    1.997650024789   -1.123372884886
 H   -2.901224465042    1.652970123665    0.434676682336
 H   -4.107300422800    0.568410146633   -0.235965846583
 H   -2.562869352509    0.004871963803   -2.123220692361
 H   -1.337291623590    1.043394933828   -1.454043614199
 H   -2.483336694710   -1.376909686396   -0.013408421488
 H   -1.050230691409   -1.453432499063   -0.998453057308
 H   -1.090677286055    0.549586911212    1.266969737296
 H   -0.873400331158   -1.143742815238    1.629025611393
 H    3.683566428740   -0.949383061384   -0.054327682586
 H    1.373595529855   -2.254163592814    0.758382797952
