20

 C   -2.005125153208    0.735616960123   -1.377471884872
 C   -2.247125565751   -0.761894348560   -1.175714826910
 C   -1.553078124053   -1.384911258334    0.041950264487
 C   -0.031504393710   -1.527417811122   -0.048114023732
 N    0.702019037777   -0.299421703857    0.229419239999
 N    0.511417985901    0.353036687560    1.356278119827
 N    1.299717551469    1.349370900580    1.388551055405
 C    2.040422282857    1.359307253878    0.259909624683
 C    1.664167007005    0.293850397425   -0.494667142778
 H   -2.615673004688    1.110260210593   -2.193237519258
 H   -0.971153159331    0.956767411453   -1.615006228997
 H   -2.262597808211    1.295693634196   -0.484127188271
 H   -3.315343682893   -0.925866182023   -1.062054962554
 H   -1.954691716486   -1.305169596291   -2.072721784997
 H   -1.802111477607   -0.838425787961    0.944069333589
 H   -1.942703702871   -2.391302206734    0.172698645368
 H    0.305346574463   -2.271369819906    0.662735119758
 H    0.269475611704   -1.855814157772   -1.034858002476
 H    2.774469384283    2.111947858542    0.070855787611
 H    1.984596425564   -0.074679938958   -1.444637313518
