20

 C   -3.652986704356    0.900617533585   -0.310388371987
 C   -2.481897916575    0.537224412599   -1.225149667527
 C   -1.504541368492   -0.471769337555   -0.613982296711
 C   -0.726589993324    0.081012146229    0.598961712887
 N    0.706846308050   -0.134618842512    0.501901589623
 N    1.451949058560    0.697269275209   -0.195512321839
 N    2.650404429196    0.274981971840   -0.186219160177
 C    2.706892658559   -0.868792616965    0.529113542305
 C    1.453350212169   -1.143879282119    0.976147619167
 H   -4.321677025169    1.603094439023   -0.796916835245
 H   -3.318981082410    1.360826376859    0.615301003923
 H   -4.232010857536    0.018832075572   -0.050037533523
 H   -2.872777816763    0.119845472760   -2.148712164694
 H   -1.934664072080    1.434882738743   -1.500467402431
 H   -2.034737707592   -1.377760525199   -0.333036768990
 H   -0.784609040823   -0.755260528236   -1.373040450840
 H   -0.856654807477    1.150389678843    0.682710007365
 H   -1.058204319860   -0.361924161503    1.528235981011
 H    3.622043324195   -1.399896850746    0.675523030689
 H    1.048986863811   -1.934306035089    1.570104684316
