20

 C   -3.562405490667    1.051041272739   -0.418658280765
 C   -2.376368984048    0.565226662727   -1.253463624603
 C   -1.540079447691   -0.521861304016   -0.569944667438
 C   -0.757341847976   -0.021708579633    0.664571574896
 N    0.680230637280   -0.185207184254    0.532349538873
 N    1.389220645522    0.714653665347   -0.116583781839
 N    2.598921415064    0.327540141493   -0.156663435924
 C    2.699884871478   -0.861357952639    0.475323401533
 C    1.462805535464   -1.203328651892    0.922061670431
 H   -4.126413264809    1.808842749696   -0.952469307818
 H   -3.246854219099    1.488365652486    0.524238513793
 H   -4.240087706255    0.232591550753   -0.191846463618
 H   -2.748462866163    0.170391317919   -2.194594668802
 H   -1.731008272830    1.402602701550   -1.504696141229
 H   -2.186421757933   -1.346715954674   -0.282429031619
 H   -0.829017859070   -0.920659499748   -1.284052692285
 H   -0.922737475400    1.032398087249    0.831462187090
 H   -1.053834614197   -0.544374212090    1.563879176391
 H    3.631942853600   -1.374590375053    0.569563141847
 H    1.091420243702   -2.044686573901    1.465424914220
