20

 C   -3.483349780142    1.106571041890   -0.432125874140
 C   -2.309141727865    0.523849780017   -1.219893378536
 C   -1.576604745477   -0.609141598553   -0.492037862083
 C   -0.770035530945   -0.146140301695    0.740158018681
 N    0.667339173367   -0.218955732561    0.539634869087
 N    1.304507071108    0.771880760567   -0.048653308169
 N    2.528448519627    0.452733003680   -0.170218858884
 C    2.713300807548   -0.781152769809    0.346077144864
 C    1.514034869052   -1.225958378697    0.804892057405
 H   -3.972156763843    1.894317099087   -0.995898057546
 H   -3.169385686361    1.535745547054    0.514876299139
 H   -4.226017896700    0.342885876086   -0.218000913966
 H   -2.679128253069    0.140378776205   -2.166681471737
 H   -1.598805692607    1.309338724030   -1.462639851937
 H   -2.302702621976   -1.356072214066   -0.181659036269
 H   -0.899800500899   -1.104203238147   -1.179092907404
 H   -0.988949098026    0.879404946072    0.996651156430
 H   -0.994006188338   -0.754081572405    1.606543127495
 H    3.672270332286   -1.251552777837    0.358426187710
 H    1.207096711896   -2.130926728290    1.282279047909
