20

 C   -2.162202111258    0.780878558758   -1.790142254818
 C   -2.469021076173   -0.632805144896   -1.294447036720
 C   -1.622342472596   -1.080791900447   -0.098054086548
 C   -0.122700390971   -1.267652597768   -0.406581870991
 N    0.730672352043   -0.260580770404    0.206471684049
 N    0.865012292900   -0.221798977619    1.515487713740
 N    1.655564419941    0.726967255203    1.814901955031
 C    2.062284198866    1.334715548800    0.680046477831
 C    1.470358650450    0.701784069596   -0.366492940169
 H   -2.821284058496    1.054844116543   -2.607618256143
 H   -1.142967966500    0.873089114603   -2.153105015107
 H   -2.294730021413    1.509670168908   -0.996371138017
 H   -3.515608099558   -0.684819107534   -1.007707873339
 H   -2.343931612894   -1.341848196904   -2.110592356452
 H   -1.727607518389   -0.379114835131    0.720982709550
 H   -2.012171895233   -2.027356208257    0.261911698671
 H    0.220439159627   -2.226423498645   -0.044448303896
 H    0.070391049157   -1.235648990208   -1.470546421657
 H    2.737242023244    2.162520858478    0.691323032365
 H    1.514769929712    0.847891553730   -1.423356667915
