20

 C   -2.371373206631    1.274614543667   -0.534952432066
 C   -1.909579916012   -0.067508379118   -1.106380423366
 C   -1.787504145618   -1.184397597039   -0.063525976015
 C   -0.639227384582   -1.060675046108    0.958782767833
 N    0.552084227549   -0.387750872149    0.469877237865
 N    0.830338517124    0.842843848144    0.849501719299
 N    1.911764653452    1.204124132075    0.291262614522
 C    2.371729960402    0.192519658374   -0.477028116971
 C    1.500032072428   -0.842664300720   -0.365884792569
 H   -2.478293131678    2.010580047889   -1.325463339028
 H   -1.666365270026    1.669242958545    0.186644587741
 H   -3.337074466178    1.174395829178   -0.046105833576
 H   -2.626071097373   -0.397700845983   -1.853700144590
 H   -0.965550188264    0.057976955739   -1.625446485093
 H   -2.713636746459   -1.272209850161    0.497541500565
 H   -1.668662621478   -2.125880568896   -0.594781998655
 H   -0.950403729376   -0.480410248767    1.814700523327
 H   -0.351381098381   -2.040913758776    1.316431092874
 H    3.277138708283    0.273869688235   -1.038058015316
 H    1.476550881604   -1.822643960582   -0.790760557270
