20

 C   -2.131530648626    1.072873979979   -0.748960998776
 C   -1.967235513223   -0.415991482443   -1.058807668061
 C   -1.776241475874   -1.313992847971    0.172883266070
 C   -0.376917821665   -1.362909930236    0.845045625988
 N    0.602369552116   -0.383633402396    0.405090982760
 N    0.801492824705    0.716866951945    1.103279348495
 N    1.707467635420    1.401816964575    0.536115172378
 C    2.131969577263    0.742291348010   -0.564045723103
 C    1.426005458149   -0.414238831788   -0.655144400258
 H   -2.307765478576    1.631461103052   -1.662978859121
 H   -1.260380274059    1.493538327658   -0.265020499965
 H   -2.984469596057    1.234668707819   -0.095595055825
 H   -2.863672200045   -0.760812083527   -1.567098765650
 H   -1.153703015999   -0.559755747838   -1.763647759383
 H   -2.502657436240   -1.014490001647    0.921998251495
 H   -2.031840958630   -2.333424662983   -0.098684427506
 H   -0.464367251657   -1.225583898535    1.911517836575
 H    0.070599688620   -2.334576130633    0.681183931907
 H    2.900579665645    1.131295389611   -1.195609744543
 H    1.444174050034   -1.223750268610   -1.351687794980
