20

 C   -3.635443743470    1.007971623824   -0.396278201755
 C   -2.462696910172    0.695749061344   -1.327924879297
 C   -1.456029372287   -0.304324610665   -0.751415958054
 C   -0.714313049798    0.224253621259    0.490185950508
 N    0.691842108919   -0.140520206285    0.507236503573
 N    1.567613826697    0.581566682844   -0.160153533495
 N    2.711886076624    0.041526283779   -0.044500686330
 C    2.597928415901   -1.070610783996    0.712771523130
 C    1.293737992382   -1.198492870864    1.072397763271
 H   -4.326410682699    1.703167835350   -0.861634137001
 H   -3.304848474231    1.456511157310    0.536332051314
 H   -4.189207231768    0.105947382161   -0.150821028682
 H   -2.849062362953    0.294336981451   -2.260325120069
 H   -1.939657597116    1.613961968486   -1.582048351719
 H   -1.949564555846   -1.244271892935   -0.518750919064
 H   -0.715762027328   -0.519558376578   -1.513620935821
 H   -0.736356652633    1.304759640930    0.512444708725
 H   -1.156706286822   -0.132052036930    1.410600127695
 H    3.440136589148   -1.684549343772    0.946782667777
 H    0.767878304106   -1.917978563357    1.661363486153
