20

 C   -2.547088343042    1.287125802580   -0.536622085638
 C   -1.913796454770    0.050093050531   -1.175770744098
 C   -1.724840163112   -1.129709122349   -0.216293456001
 C   -0.744273854428   -0.896322777004    0.937650066797
 N    0.541584430420   -0.369267192122    0.512061852567
 N    0.845253739639    0.896732301560    0.714658389800
 N    1.999887539895    1.120311711727    0.235811186870
 C    2.480259136254   -0.021452228839   -0.302717479384
 C    1.543712457107   -0.990209990203   -0.130962747153
 H   -2.732458394525    2.049479010537   -1.286394201188
 H   -1.902893163024    1.724087949443    0.217518594876
 H   -3.499571297743    1.043452394632   -0.072375609103
 H   -2.543869792744   -0.289485125068   -1.993503167176
 H   -0.958956337656    0.316856205550   -1.617416953767
 H   -2.678954722710   -1.410445018882    0.223323491562
 H   -1.388251443822   -1.991657010040   -0.788110253735
 H   -1.132181201568   -0.174681513872    1.640725544839
 H   -0.572659474656   -1.821078471853    1.474739612639
 H    3.443964127202   -0.069081299327   -0.761103262292
 H    1.511046709914   -2.024967772826   -0.394473112771
