20

 C   -2.416231264576    0.886808638966   -2.142070467062
 C   -2.609701986332   -0.437616061029   -1.401098898658
 C   -1.659681553932   -0.630436899740   -0.212267140002
 C   -0.202220975594   -0.905336691860   -0.628457271252
 N    0.771862214085   -0.233195793627    0.212796007851
 N    1.139352468423   -0.768233918986    1.358475622886
 N    1.946534466194    0.024954044853    1.936025455637
 C    2.116653656744    1.119060078296    1.162306722940
 C    1.358840705935    0.962711787820    0.045583555194
 H   -3.123646367105    0.977455838653   -2.959857158678
 H   -1.420326290523    0.979918006345   -2.566697736605
 H   -2.571021365258    1.730190559581   -1.474986985420
 H   -3.631763316157   -0.487167874868   -1.035906761589
 H   -2.499971078760   -1.266961441479   -2.098131251476
 H   -1.683098140110    0.263447169686    0.403220155637
 H   -2.006898739685   -1.442329012183    0.417050424495
 H    0.022144011634   -1.961283699585   -0.592562682708
 H   -0.017055737277   -0.568062696712   -1.639666625836
 H    2.761283505712    1.920952561141    1.449624949835
 H    1.199600272971    1.571768557441   -0.817570978402
