20

 C   -1.713841711453    0.598680296291   -2.482973178779
 C   -2.049626166893    0.006389092536   -1.112995944011
 C   -1.305828465261   -1.289607197763   -0.774481959074
 C    0.218965152149   -1.188402136028   -0.741854014395
 N    0.703537215418   -0.253069187469    0.262257431511
 N    0.514451756744   -0.499495668696    1.541671321985
 N    1.020097976278    0.449863579327    2.218193916062
 C    1.560689114957    1.352252820844    1.371927121700
 C    1.361224373940    0.906390459909    0.103999029888
 H   -2.339524540235    1.460519479560   -2.690251290362
 H   -1.876326749449   -0.125263292734   -3.277161411036
 H   -0.682181652528    0.930846678367   -2.544626300774
 H   -1.857891378729    0.745683745820   -0.340710930836
 H   -3.114649643803   -0.203047708409   -1.071125253003
 H   -1.642253218551   -1.655474429373    0.188919226530
 H   -1.557210569808   -2.054350046924   -1.506676822630
 H    0.646892872516   -2.157080811299   -0.520600254475
 H    0.617231302772   -0.862808137557   -1.692682353637
 H    2.045809351148    2.237098712621    1.722122178722
 H    1.624679451114    1.297209834967   -0.854246854957
