20

 C   -2.684648377173    1.035118163764   -1.003293318173
 C   -2.057284187099   -0.356696065911   -1.083365832321
 C   -1.726525407706   -0.951598571566    0.301988074298
 C   -0.305534949137   -1.497044120873    0.431842343925
 N    0.708945084712   -0.462545073569    0.296656846439
 N    0.781290733838    0.513890431211    1.177344552323
 N    1.746338349413    1.276937284802    0.859584578924
 C    2.332715527508    0.801510109586   -0.259909348960
 C    1.670575809755   -0.325678852986   -0.630041525653
 H   -2.917871532160    1.416194874944   -1.992584744974
 H   -2.007848789398    1.734857237205   -0.523822210718
 H   -3.606754234787    1.018040211998   -0.429030541375
 H   -2.721747854898   -1.027101215353   -1.620691341791
 H   -1.153120841289   -0.288712955771   -1.681741099331
 H   -1.862571269422   -0.202668578933    1.073676537105
 H   -2.407794610362   -1.763686575874    0.539193311158
 H   -0.169878143301   -1.968737797525    1.396217588200
 H   -0.101073864484   -2.236206763189   -0.332321235288
 H    3.170473859744    1.287318339876   -0.710560511920
 H    1.798361216809   -1.012848968489   -1.437604150154
