20

 C   -1.740345998921    0.541816428102   -1.940222604339
 C   -2.324402453922   -0.483466150005   -0.964703930896
 C   -1.352964566329   -1.529251371363   -0.356572663017
 C    0.147026198659   -1.331666587767   -0.568553579551
 N    0.700338532683   -0.201826139249    0.169651321865
 N    0.394967223382   -0.009315413308    1.435614019819
 N    1.060653275972    0.982407930459    1.869682788008
 C    1.836787262750    1.459315261565    0.873189872376
 C    1.614612315073    0.696987810546   -0.229050856561
 H   -2.531851848515    1.187416391380   -2.307198606191
 H   -1.284439276379    0.071583317868   -2.807903680742
 H   -0.998998983403    1.173973343455   -1.467231618605
 H   -2.784935321584    0.068487800559   -0.151732523903
 H   -3.132404885564   -1.015116112938   -1.456879265853
 H   -1.537325671640   -1.629425576815    0.704268642771
 H   -1.568851583051   -2.501267828450   -0.793078867125
 H    0.668512770960   -2.225489780934   -0.247648656095
 H    0.384501900852   -1.170238561723   -1.610294921032
 H    2.483301549992    2.298374711519    1.011155487695
 H    2.008782920243    0.720419074852   -1.221473101301
