20

 C   -2.962780677248    1.059259589337   -1.057300106712
 C   -2.048315593249   -0.165134143447   -1.084612643931
 C   -1.761548374490   -0.723822731927    0.317328138209
 C   -0.403423044749   -1.410523424020    0.458133729450
 N    0.713839271521   -0.491045511224    0.309315136874
 N    0.923429477887    0.446266851240    1.210297415047
 N    1.952249689073    1.111136176421    0.873528082879
 C    2.441043635199    0.609777558808   -0.281180174568
 C    1.648127164960   -0.428925755302   -0.652890330448
 H   -3.169869964592    1.414870541982   -2.061582883330
 H   -2.500256097626    1.870004424190   -0.503739663277
 H   -3.914479462912    0.833939655440   -0.583652152432
 H   -2.479534955723   -0.943548496732   -1.709154291268
 H   -1.115012048677    0.124833581373   -1.558938109041
 H   -1.796744893975    0.076281951826    1.048833660407
 H   -2.530160529241   -1.437305084560    0.601910619405
 H   -0.316565550228   -1.873593125668    1.431858704004
 H   -0.275668726703   -2.183218183102   -0.289813495838
 H    3.309005485087    1.016440078109   -0.752551084935
 H    1.670412697435   -1.101326103658   -1.482391473153
