20

 C   -1.768786523593    0.587581222327   -1.992945138784
 C   -2.322645435058   -0.347461515237   -0.915269963380
 C   -1.385764195280   -1.470388524216   -0.411170097947
 C    0.115450150172   -1.296050821500   -0.629724765893
 N    0.698011968901   -0.216589493284    0.159787397421
 N    0.419547003353   -0.094824692142    1.440744376993
 N    1.102180830452    0.865443643704    1.917078645913
 C    1.867550942248    1.388617914825    0.935570533020
 C    1.616249597366    0.693138231218   -0.203973954458
 H   -2.534197731483    1.295089622417   -2.294731567347
 H   -1.460137542225    0.048423970037   -2.885381135056
 H   -0.922785087347    1.160538994913   -1.633212265385
 H   -2.609666330364    0.267282023941   -0.067736586263
 H   -3.238082722893   -0.806728762055   -1.274335872575
 H   -1.566976314482   -1.654961250961    0.639115706707
 H   -1.635344020075   -2.393492124718   -0.929929715319
 H    0.622040272318   -2.215666670220   -0.362523074863
 H    0.343370438421   -1.084393926952   -1.664452948703
 H    2.526360816490    2.211379290815    1.108937340977
 H    1.993950819308    0.767990826291   -1.200280475071
