20

 C   -1.785387373384    0.642922342892   -1.745663385476
 C   -2.374361631307   -0.491688071776   -0.902587784355
 C   -1.392452323312   -1.528446217909   -0.289520435602
 C    0.103812159428   -1.363249001334   -0.554224789300
 N    0.703227047175   -0.226385892579    0.134515362525
 N    0.428283504158    0.020719801214    1.397863491334
 N    1.130037251765    1.008431205798    1.781380019688
 C    1.900776591496    1.424991044185    0.753966704358
 C    1.635269617605    0.629333910335   -0.314414429010
 H   -2.589509233995    1.258332369848   -2.136221551344
 H   -1.225070471734    0.272438124669   -2.599720351449
 H   -1.135102547692    1.285961396098   -1.165731825300
 H   -2.943666655837   -0.043106196486   -0.095564056807
 H   -3.096748027735   -1.026170201770   -1.511743443054
 H   -1.533744253626   -1.578195123290    0.781530168742
 H   -1.641917400109   -2.514606964477   -0.670938495659
 H    0.617696661491   -2.258957175963   -0.225970229785
 H    0.312821439661   -1.235032897032   -1.607012045169
 H    2.573575500702    2.249295541711    0.848501123514
 H    2.008867669125    0.605845173913   -1.314726588791
