20

 C   -2.208936254413    0.782920842879   -2.829935461683
 C   -1.113732598762    0.671582410211   -1.769616720981
 C   -0.670371781983   -0.776139154629   -1.532872660228
 C    0.698859054570   -0.910698806328   -0.871819242559
 N    0.747755510881   -0.324294729481    0.458925582371
 N    0.077207168585   -0.875859055323    1.448926030967
 N    0.264258824116   -0.187127418751    2.500244626816
 C    1.078123801539    0.849482218818    2.206713287990
 C    1.397236111394    0.768978858176    0.888306207714
 H   -2.525187374294    1.813111768518   -2.957859506713
 H   -3.083859114910    0.200969493498   -2.554493437760
 H   -1.859441971232    0.419902740988   -3.792093284954
 H   -0.259027316412    1.265409834511   -2.090329671223
 H   -1.455530421338    1.107079013302   -0.835887535549
 H   -1.407680391565   -1.302622494397   -0.936659597348
 H   -0.607088279479   -1.298055276050   -2.485538590127
 H    0.973971845611   -1.952738546866   -0.779325609642
 H    1.458787396743   -0.414637651912   -1.461872793558
 H    1.374484574837    1.563011549035    2.944271455258
 H    2.006115281972    1.369571320194    0.248622874450
