20

 C   -1.818771313379    0.609846200077   -1.490517794411
 C   -2.346827642702   -0.738479382930   -0.997269662777
 C   -1.475063530196   -1.501964149202    0.016636875230
 C    0.038468146972   -1.494784084947   -0.209609539318
 N    0.692783801249   -0.250721748101    0.175081398538
 N    0.463367862038    0.296204133498    1.350258887916
 N    1.205348866582    1.320434081183    1.474781754282
 C    1.959569694175    1.453519892110    0.362819362429
 C    1.637303400130    0.440201068646   -0.482224148923
 H   -2.555286362100    1.079372496428   -2.135075142212
 H   -0.908615805893    0.500102611512   -2.069667009921
 H   -1.612305969855    1.289344258406   -0.670678418333
 H   -3.325521149520   -0.597330647569   -0.548748007565
 H   -2.506305088411   -1.374039058180   -1.866377731189
 H   -1.655186583808   -1.125775740101    1.016433642598
 H   -1.787718830572   -2.542152649994    0.021607848122
 H    0.488540635069   -2.293075140252    0.367768269238
 H    0.283941975566   -1.667631831338   -1.250061034293
 H    2.661310883753    2.250403051851    0.246535173925
 H    1.982647297133    0.167430875445   -1.455400226829
