20

 C   -2.167017803376    0.779532212962   -2.893005257635
 C   -1.206070811307    0.649333799353   -1.711350552403
 C   -0.736386326898   -0.795329264824   -1.485514921813
 C    0.656791878744   -0.911719390056   -0.873637311030
 N    0.746157934486   -0.318591600673    0.452392415807
 N    0.097914966973   -0.859482848005    1.462896553262
 N    0.321501866612   -0.168477346632    2.505566500802
 C    1.140211254326    0.856535915353    2.186022266057
 C    1.420296036390    0.768334176626    0.859324107536
 H   -2.503055613924    1.804478576673   -3.012244697267
 H   -3.047301282308    0.157447605021   -2.757453285960
 H   -1.687225383229    0.476091263447   -3.818849883357
 H   -0.343674981319    1.285944545550   -1.901524428299
 H   -1.669548100562    1.031296463115   -0.807766148630
 H   -1.445421982302   -1.333703477228   -0.867030756736
 H   -0.695135950822   -1.317649464853   -2.439132744924
 H    0.948223141058   -1.950090497393   -0.788456795402
 H    1.387763991053   -0.407795500506   -1.492626625724
 H    1.465433796668    1.569057532573    2.912308190067
 H    2.018022349864    1.359608500565    0.200742547278
