20

 C   -1.903057574557    0.420136663425   -2.727584873840
 C   -1.950208444262    0.121627339911   -1.227689555242
 C   -1.261129249856   -1.191120302951   -0.834538968418
 C    0.263914428189   -1.115925828669   -0.742527187174
 N    0.724509999140   -0.231196019142    0.315754209037
 N    0.555916249659   -0.565869371039    1.578069450392
 N    1.029379885172    0.358122183188    2.310269774047
 C    1.526611223579    1.333763821455    1.520009813909
 C    1.334999934282    0.961202368774    0.227530052593
 H   -2.413420677937    1.350802765979   -2.953570212948
 H   -2.386551813641   -0.369190639655   -3.295572000526
 H   -0.884455421463    0.512549016945   -3.095444632175
 H   -1.522819477649    0.946547421440   -0.666005573375
 H   -2.991194554309    0.062878307778   -0.923527356390
 H   -1.629230358750   -1.523419096890    0.129640925118
 H   -1.512077736915   -1.969176722809   -1.551337126799
 H    0.672853128530   -2.097415584302   -0.544559304039
 H    0.701187143708   -0.756571137438   -1.664896047855
 H    1.979705784314    2.213060643151    1.923102161965
 H    1.573879094132    1.421908309481   -0.706003801717
