20

 C   -2.512181762920    1.057073273450   -0.982910864103
 C   -2.055380094637   -0.397348554747   -1.102147956097
 C   -1.718020639569   -1.044286918449    0.259637868745
 C   -0.277479554026   -1.536413170498    0.384264324011
 N    0.697173008861   -0.460100948683    0.286910768235
 N    0.741014954321    0.478952827981    1.209144522365
 N    1.668750253800    1.295396911587    0.913597511442
 C    2.261079027595    0.892679700728   -0.231009454656
 C    1.641003090572   -0.243936618046   -0.642813518528
 H   -2.733412354272    1.477747789517   -1.958893785652
 H   -1.745957606701    1.668722616352   -0.517992653965
 H   -3.410606105317    1.134120813200   -0.377333308050
 H   -2.830056338381   -0.975559576675   -1.596850795755
 H   -1.189844595516   -0.438520734225   -1.757830729854
 H   -1.904814657271   -0.344897594491    1.066332257141
 H   -2.360365021556   -1.901211507018    0.441591476701
 H   -0.128412206969   -2.031277347059    1.334890067283
 H   -0.041377354905   -2.243210001044   -0.400869286926
 H    3.072799733231    1.431553871904   -0.668792822716
 H    1.786990854541   -0.889849475930   -1.480744962172
