20

 C   -2.067667712181    0.711201746462   -2.957474764589
 C   -1.539128287183    0.525862900913   -1.534408837325
 C   -0.993258323008   -0.894481989451   -1.269454811465
 C    0.479551650847   -0.940280231732   -0.867864093337
 N    0.739579091250   -0.289785666119    0.407543052015
 N    0.240095560354   -0.790129219543    1.518489972497
 N    0.605164603010   -0.060905203240    2.492746927042
 C    1.369708139940    0.948564490382    2.024005554984
 C    1.463499904638    0.808489406380    0.675836552348
 H   -2.442596501750    1.718629257668   -3.107907947299
 H   -2.879509800902    0.020733620267   -3.166951159463
 H   -1.286955692715    0.534380600794   -3.692727515977
 H   -0.762370617036    1.263116717596   -1.350203197019
 H   -2.328820104303    0.751992679809   -0.826203400859
 H   -1.569485947811   -1.389536109892   -0.497435203649
 H   -1.092019780906   -1.503456110732   -2.164506389289
 H    0.816753775212   -1.965255464955   -0.788100270905
 H    1.096221071742   -0.441950226729   -1.605150827132
 H    1.790918142483    1.687284773185    2.670393658506
 H    1.965150323483    1.370757049860   -0.081063036699
