20

 C   -2.232195408711    0.943708628988   -2.760831581686
 C   -1.123244193263    0.762935585709   -1.724636699142
 C   -0.717094810563   -0.703890676528   -1.548346184063
 C    0.657340582750   -0.900489005408   -0.914379335026
 N    0.745934325802   -0.361539199444    0.434344756161
 N    0.082760094371   -0.932022576515    1.418566816337
 N    0.301794340955   -0.281486774469    2.487947594612
 C    1.134341944775    0.745363258786    2.213716137167
 C    1.428418553768    0.701382269331    0.887798939988
 H   -2.526416597330    1.985066662247   -2.840138451917
 H   -3.116271075775    0.370593469811   -2.497149105493
 H   -1.905163235692    0.614491483552   -3.742544003443
 H   -0.256903311002    1.341788830191   -2.040678228351
 H   -1.435235360229    1.175260925674   -0.770769416672
 H   -1.459848726711   -1.233627121953   -0.962287760825
 H   -0.680985434278   -1.189314116622   -2.521660933142
 H    0.902337381052   -1.952714797207   -0.861148414401
 H    1.421707039087   -0.407551010575   -1.501229541235
 H    1.459749079857    1.427247504832    2.968704834997
 H    2.039401060152    1.309236994032    0.257227844099
