20

 C   -2.034540753928    0.793680945659   -1.158206293584
 C   -2.176755031389   -0.726891148472   -1.051272860234
 C   -1.601920435151   -1.357772398058    0.225434403017
 C   -0.089182781864   -1.576000357555    0.253256691596
 N    0.696172215410   -0.351500598610    0.265066658174
 N    0.571190412769    0.509786596587    1.252158884731
 N    1.364709223683    1.481135248092    1.048072292528
 C    2.042181556302    1.260058292926   -0.098848421549
 C    1.617125806230    0.075884901905   -0.612483268664
 H   -2.547935258220    1.156285247734   -2.043673652018
 H   -1.001926724582    1.112289330004   -1.223017032989
 H   -2.475377959778    1.283819345497   -0.295886868832
 H   -3.234761660379   -0.971382936133   -1.089549582938
 H   -1.730596249458   -1.201966156763   -1.923656845864
 H   -1.889385909692   -0.774461884406    1.093515258350
 H   -2.042551807458   -2.343410781328    0.354964073440
 H    0.179720007074   -2.145361939140    1.133728526055
 H    0.229049267571   -2.139744423629   -0.614520160143
 H    2.770722945049    1.948678999701   -0.467509677403
 H    1.880222988070   -0.473609657411   -1.489639222446
