20

 C   -2.352607687402    0.971696331660   -1.028117491558
 C   -2.044054383146   -0.524534015181   -1.104067332048
 C   -1.687355377131   -1.149929465617    0.261925027863
 C   -0.221828951126   -1.555014219853    0.409225948022
 N    0.694121102518   -0.429375884520    0.302226338674
 N    0.714578098221    0.496792219790    1.238060353590
 N    1.580420665335    1.372486440842    0.924019634229
 C    2.153878344415    1.023523371937   -0.247633861784
 C    1.587592988825   -0.141609521777   -0.657597005353
 H   -2.586075923519    1.370779896802   -2.010417769318
 H   -1.512203997959    1.529920856669   -0.629273651494
 H   -3.207089657553    1.156072355444   -0.383724973497
 H   -2.907960430517   -1.036760093801   -1.516885776195
 H   -1.236108498849   -0.690271809580   -1.812272825112
 H   -1.940131574570   -0.470137141664    1.067629715904
 H   -2.271612855669   -2.051414387607    0.425352681162
 H   -0.054134235721   -2.022516854827    1.370336622688
 H    0.059610653836   -2.262109331073   -0.360449442835
 H    2.916578189416    1.616247265312   -0.703689353793
 H    1.740824507045   -0.764105440060   -1.511831914365
