20

 C   -3.221610457083    1.125379793004   -0.856128212718
 C   -2.072951752137    0.119825657699   -0.927396116177
 C   -1.760267562979   -0.507785517520    0.432698599184
 C   -0.475738655190   -1.334753747182    0.463021050017
 N    0.721685731947   -0.536209946903    0.252691683809
 N    1.114589177338    0.320449064183    1.172512154434
 N    2.172433379763    0.895365469327    0.766936170533
 C    2.495921125979    0.411692019126   -0.451896071408
 C    1.563652340462   -0.515951456074   -0.792925070591
 H   -3.436476884735    1.542502185934   -1.834675641136
 H   -2.975391789380    1.947313266905   -0.191146637779
 H   -4.132067349661    0.661150952535   -0.487207378528
 H   -2.312218858142   -0.664156773978   -1.643348143266
 H   -1.189809584875    0.626546557160   -1.305477903502
 H   -1.680365396470    0.266775460749    1.188300506540
 H   -2.578311485634   -1.157502652478    0.734752456871
 H   -0.370787524293   -1.830215461828    1.418693100276
 H   -0.485369472451   -2.096037541967   -0.307107191479
 H    3.355908704126    0.752118743560   -0.986250988165
 H    1.435034915570   -1.137408261806   -1.652082992109
