20

 C   -1.820892295352    0.540062878081   -2.594018109051
 C   -2.009800532120    0.073221633975   -1.149396920705
 C   -1.289128059272   -1.235701783331   -0.809648521954
 C    0.236641831788   -1.147116502192   -0.754096716868
 N    0.715050570579   -0.245442911260    0.282310321260
 N    0.550532451350   -0.550938694312    1.552444050104
 N    1.040115406469    0.382708511222    2.261597182174
 C    1.549736057310    1.331966333533    1.447658673104
 C    1.345343804869    0.934102645606    0.164770544238
 H   -2.398468611942    1.438046036447   -2.786885457680
 H   -2.148576160551   -0.220538040026   -3.296703595857
 H   -0.783973314601    0.771146891027   -2.819744122083
 H   -1.694217340892    0.853437999789   -0.463109748717
 H   -3.070772825218   -0.073182762818   -0.968474306189
 H   -1.635649018000   -1.600083193540    0.150907602050
 H   -1.544128455854   -1.995805143975   -1.544789430763
 H    0.656047370784   -2.123926337218   -0.554237351384
 H    0.650662553371   -0.796937498884   -1.689820776658
 H    2.018597097305    2.212734549410    1.828930211665
 H    1.586253625020    1.370666739798   -0.779686668610
