20

 C   -2.138038448909    0.957539798848   -2.866597095405
 C   -1.441355213427    0.697211731857   -1.530562961202
 C   -0.946882737762   -0.756706148468   -1.380109966183
 C    0.507932242916   -0.885737316490   -0.935671036785
 N    0.745735188442   -0.341167536881    0.392698696166
 N    0.220796811692   -0.926425015165    1.449180684324
 N    0.559651409567   -0.274021989759    2.485390254584
 C    1.330902966547    0.770437508629    2.114557817213
 C    1.458368364999    0.734670221011    0.762332902064
 H   -2.479302127211    1.985497852435   -2.936207551798
 H   -3.003075714570    0.312577226179   -2.992427490897
 H   -1.465154501192    0.772932127818   -3.699434648395
 H   -0.602282614520    1.383184871468   -1.442731670031
 H   -2.109875213382    0.945595615271   -0.713453281753
 H   -1.571302189051   -1.305308255782   -0.685243639624
 H   -1.022636543945   -1.272174971367   -2.334611595976
 H    0.807510449090   -1.925117515848   -0.920572005776
 H    1.164970871441   -0.357269395755   -1.614521824409
 H    1.733820963636    1.457683898470    2.826095189619
 H    1.976359327797    1.354521051031    0.063702731551
