20

 C   -1.707667863460    0.560565393234   -2.047554490707
 C   -2.278227689961   -0.398393813438   -1.000005795130
 C   -1.332793954655   -1.502277492451   -0.469939485962
 C    0.170443127119   -1.289415158776   -0.633365066514
 N    0.696577792765   -0.201124167228    0.183038034182
 N    0.367670237835   -0.093515209498    1.453276763454
 N    1.010974382266    0.878277923763    1.959938821629
 C    1.796653462947    1.427768084250    1.009373757705
 C    1.604061682780    0.733615460838   -0.142316635390
 H   -2.479138023337    1.251788466278   -2.372053695829
 H   -1.352381377200    0.037451037308   -2.932526409358
 H   -0.890253480623    1.151209215363   -1.651320768105
 H   -2.614555876824    0.199978730618   -0.159016507435
 H   -3.166513674356   -0.877206702953   -1.399549913583
 H   -1.545713728345   -1.697298373465    0.572493587629
 H   -1.541695411442   -2.428090568153   -1.001471652674
 H    0.690253502571   -2.197942256471   -0.353866082676
 H    0.430022518844   -1.064657010817   -1.657823556482
 H    2.428281873837    2.265245371528    1.211147451146
 H    2.015381627102    0.824277015318   -1.123883984914
