20

 C   -2.070967445544    0.772119220246   -2.885260313748
 C   -1.670449107606    0.517302128302   -1.431236156993
 C   -1.094655982091   -0.895683427763   -1.197892537760
 C    0.403427152680   -0.925920724343   -0.897654528829
 N    0.740477905553   -0.290508367843    0.366912134000
 N    0.337302721330   -0.822527535694    1.502018111885
 N    0.753494022751   -0.099610429149    2.460244862955
 C    1.458143036174    0.936002543042    1.955797836808
 C    1.455874124170    0.820986980592    0.602077464643
 H   -2.455589811117    1.778705052587   -3.015339072438
 H   -2.843159143915    0.078072664704   -3.203389969759
 H   -1.224471329702    0.652678800488   -3.557028240898
 H   -0.953478134112    1.270046238333   -1.116671202478
 H   -2.539965529996    0.661567934970   -0.798737224797
 H   -1.604490868981   -1.384570591716   -0.376668899452
 H   -1.259197404022   -1.515672816076   -2.075161191123
 H    0.757752399852   -1.947213708519   -0.854874525071
 H    0.965015453807   -0.410397216698   -1.666748180359
 H    1.907924821174    1.674118009267    2.583340295925
 H    1.887334205440    1.408034743235   -0.178876218222
