20

 C   -3.171911564781    1.098253790045   -1.050310143604
 C   -2.014763877267    0.100059338343   -1.043024138116
 C   -1.780181717376   -0.512768300300    0.339267403883
 C   -0.495552801074   -1.332153345936    0.453085401679
 N    0.707256131379   -0.528573863713    0.299437175913
 N    1.029922338504    0.360910355596    1.215271101689
 N    2.109326408495    0.932030601679    0.864519475472
 C    2.525616842050    0.403753525273   -0.306465565930
 C    1.623756723655   -0.540683554046   -0.681518273945
 H   -3.329250950058    1.506238523621   -2.043600386957
 H   -2.970792229644    1.927004984517   -0.378648671813
 H   -4.100750391442    0.631804755244   -0.733377223161
 H   -2.204853121558   -0.691342654670   -1.765186978379
 H   -1.113503209678    0.609724403394   -1.370889602255
 H   -1.748236216284    0.270277733035    1.089551927243
 H   -2.610952117604   -1.163953919611    0.600172394320
 H   -0.442934576747   -1.815970673701    1.419171461952
 H   -0.457022287249   -2.102501331320   -0.307045665721
 H    3.420920370257    0.730649485265   -0.788688209865
 H    1.560445420176   -1.192856195162   -1.524964932062
