20

 C   -1.760492984027    0.552659492703   -2.306050875171
 C   -2.151931691342   -0.104182393136   -0.981103652582
 C   -1.356746545680   -1.363924212234   -0.615941339471
 C    0.164029084839   -1.243584129420   -0.693134408453
 N    0.702214592631   -0.242053960978    0.217142744039
 N    0.495726774594   -0.344783446761    1.513555317317
 N    1.079416051420    0.621830178375    2.096463606206
 C    1.695172114272    1.386296635247    1.169585203347
 C    1.457973545111    0.834905055690   -0.049408930131
 H   -2.447364781303    1.356945897131   -2.548141952374
 H   -1.785610863213   -0.158784205178   -3.127970181027
 H   -0.765657840413    0.983404050276   -2.268230537876
 H   -2.050436289130    0.625331629450   -0.182754391828
 H   -3.203452522762   -0.374249953268   -1.011011177020
 H   -1.630076601906   -1.685282112693    0.381983755506
 H   -1.632801124930   -2.171340514758   -1.291741128916
 H    0.618574077858   -2.194617667850   -0.447010020838
 H    0.490250467691   -0.971188763997   -1.686758776708
 H    2.252292568723    2.258476549713    1.433910771984
 H    1.753968891405    1.104850395660   -1.039421597785
