20

 C   -2.957004915104    1.111799873465   -1.010836673463
 C   -2.053619285594   -0.119353323977   -1.075455453835
 C   -1.767216025887   -0.719620528830    0.309645084787
 C   -0.413185919327   -1.418561700970    0.425915680123
 N    0.709791552602   -0.503200737079    0.292085899102
 N    0.908469456479    0.437627655311    1.191738408056
 N    1.948450239805    1.093349851029    0.871359907499
 C    2.460929806528    0.576530779361   -0.266040230473
 C    1.667286952115   -0.457912183889   -0.648028435127
 H   -3.165477731443    1.496186743863   -2.004188310502
 H   -2.485373458172    1.903354289743   -0.437505873287
 H   -3.908462246921    0.881287960467   -0.539207798818
 H   -2.497707148739   -0.875777075413   -1.717853308379
 H   -1.119275523797    0.171490203075   -1.547331601655
 H   -1.799991511605    0.057584190513    1.065202271385
 H   -2.537370883071   -1.439707842238    0.572803365352
 H   -0.324624252263   -1.908395295553    1.386542470744
 H   -0.295586995170   -2.171944179270   -0.343042237514
 H    3.342733040860    0.972167736688   -0.720821316616
 H    1.702347980630   -1.136829993663   -1.471766147792
