20

 C   -1.753787523176    0.456116540952   -1.949747450784
 C   -2.326969584574   -0.533931600394   -0.932308260614
 C   -1.346173684700   -1.549604161633   -0.288966825285
 C    0.151547626110   -1.352023212350   -0.516740398348
 N    0.702137361024   -0.191025135814    0.173622988174
 N    0.403495918166    0.048514293548    1.433196151433
 N    1.063952785282    1.061845918223    1.823043412038
 C    1.833160779909    1.502592590093    0.804745277291
 C    1.610172469336    0.695545976766   -0.264936019565
 H   -2.550726994619    1.082654079676   -2.336900390526
 H   -1.299988684901   -0.044777119847   -2.800976815225
 H   -1.013432705249    1.109779320271   -1.505500120518
 H   -2.787650226657    0.045591385484   -0.138876808478
 H   -3.133625337837   -1.088969479760   -1.400345853754
 H   -1.523380839414   -1.607657222149    0.776243024181
 H   -1.559614094076   -2.539557833774   -0.684293325866
 H    0.679939653827   -2.229625906960   -0.163943876645
 H    0.382835489376   -1.230065545293   -1.565207274346
 H    2.475274198904    2.350253743061    0.905768281044
 H    1.999285328485    0.681662309965   -1.259533361992
