20

 C   -1.737749097439    0.564086196948   -1.689767414819
 C   -2.348986722476   -0.614106934105   -0.926104158061
 C   -1.389106641153   -1.570833698181   -0.167184353014
 C    0.115742710311   -1.438951933221   -0.404337541485
 N    0.700762413508   -0.229151331643    0.159274188045
 N    0.404783877415    0.159105722049    1.381756836258
 N    1.092336077160    1.191396589359    1.658926377354
 C    1.873699721441    1.495257789599    0.600457897007
 C    1.630821226548    0.579217056033   -0.372657913426
 H   -2.524143362933    1.107786864482   -2.203516953592
 H   -1.029552944380    0.238601256130   -2.445955125473
 H   -1.233981771081    1.261203951782   -1.031535247828
 H   -3.069318294391   -0.222358484208   -0.216230757119
 H   -2.924317293420   -1.202575268301   -1.635155370809
 H   -1.553378936012   -1.482702396215    0.898587159114
 H   -1.639642678134   -2.595526400530   -0.424888236050
 H    0.614909658408   -2.289220201736    0.045004809492
 H    0.358352203874   -1.440342039491   -1.458303161568
 H    2.538041847371    2.331686818706    0.608615047147
 H    2.018943015714    0.445176253925   -1.358578558136
