20

 C   -2.207191290916    0.907906677564   -1.058405051496
 C   -2.046078140182   -0.612929895047   -1.109332634434
 C   -1.654978237102   -1.245726500496    0.240865937309
 C   -0.169776709726   -1.573487728270    0.388321503596
 N    0.692372812454   -0.404852783093    0.304161535897
 N    0.689821011519    0.488730101047    1.271049350345
 N    1.499190600259    1.419716076043    0.965696094313
 C    2.058502874149    1.141052980042   -0.231436541572
 C    1.543652137537   -0.038633579342   -0.666968927817
 H   -2.477071881100    1.299620456041   -2.034332958551
 H   -1.295721169619    1.401043709779   -0.740108198314
 H   -2.992017712531    1.186130546573   -0.361601497109
 H   -2.985695508021   -1.045483437058   -1.440063922501
 H   -1.314821631500   -0.879484718838   -1.869481371771
 H   -1.954895246059   -0.602613525691    1.060930347281
 H   -2.184903492620   -2.185041421410    0.375468029869
 H    0.017566296458   -2.046851758689    1.342736421845
 H    0.149129629511   -2.254254771676   -0.390451228308
 H    2.777227143218    1.788061762185   -0.685061109375
 H    1.705991513962   -0.623236229685   -1.545871896992
