20

 C   -2.242380154382    0.785149079492   -2.756183651291
 C   -1.022433524823    0.684771422804   -1.841067162379
 C   -0.608980431286   -0.764270902512   -1.575480325665
 C    0.735277851259   -0.912222183780   -0.866456376226
 N    0.745951905683   -0.327994541643    0.465909855628
 N    0.054132771275   -0.886158340142    1.437379161049
 N    0.209058497995   -0.197591460211    2.493937965709
 C    1.020911071882    0.846782894431    2.222711550947
 C    1.375198224729    0.770055975882    0.913189964405
 H   -2.530904548492    1.819897346297   -2.909829331498
 H   -3.095328875383    0.263886749708   -2.331638179558
 H   -2.038576707072    0.349062896276   -3.729818480582
 H   -0.191698384149    1.219319266051   -2.299408956196
 H   -1.230037920366    1.184245007460   -0.899850933744
 H   -1.372071456975   -1.270941666246   -0.994312220975
 H   -0.527620854911   -1.297019338429   -2.520709035994
 H    0.995129987470   -1.957148105396   -0.764343416885
 H    1.521538329985   -0.425735430021   -1.429616201740
 H    1.292264268684    1.561645125189    2.968563433375
 H    1.995629936213    1.376259455644    0.290109132960
