20

 C   -1.869764865238    0.474712872542   -2.573361383593
 C   -2.030110973063    0.042432225427   -1.114570922951
 C   -1.299218748108   -1.256056529645   -0.757599630723
 C    0.226978069956   -1.161910882507   -0.733241064147
 N    0.721999395191   -0.236959816160    0.274356296630
 N    0.595743651825   -0.523015652972    1.553441565869
 N    1.091836061329    0.428427676839    2.233739684179
 C    1.560284679962    1.373586310975    1.390714982770
 C    1.326557244036    0.951785607360    0.120493104757
 H   -2.448670536218    1.370025483038   -2.775358376653
 H   -2.213919857428   -0.301281934246   -3.251339146620
 H   -0.836674590618    0.697010257595   -2.825368416013
 H   -1.704893729135    0.839578776649   -0.452885408234
 H   -3.087091700381   -0.102886479974   -0.910940863345
 H   -1.625743781684   -1.597699518591    0.218328654908
 H   -1.566299133607   -2.034387468718   -1.468969832928
 H    0.653388294744   -2.132722903027   -0.519876266387
 H    0.621747221899   -0.831217122710   -1.684338980802
 H    2.024616501131    2.268070542012    1.744593829744
 H    1.533012513723    1.377112120378   -0.837203375781
