20

 C   -2.204945311275    0.957748452729   -2.823386122059
 C   -1.346264949421    0.728946659083   -1.579263790626
 C   -0.895557249358   -0.735060641434   -1.423164643072
 C    0.539340173175   -0.902940865647   -0.930615124070
 N    0.750724045221   -0.355088283281    0.400844309810
 N    0.200639232857   -0.935498875885    1.447190666123
 N    0.516337655519   -0.279316082679    2.488397283707
 C    1.288084003086    0.769122107549    2.130018097326
 C    1.447799683587    0.727037846456    0.781342596727
 H   -2.526438260245    1.992032021722   -2.891872907874
 H   -3.095348805518    0.335471835884   -2.809338782095
 H   -1.650473189530    0.720339136908   -3.726683508819
 H   -0.473094789876    1.374334451380   -1.650531499943
 H   -1.880124387208    1.048460146597   -0.690594143024
 H   -1.564396840939   -1.274068768018   -0.762280575406
 H   -0.943665557565   -1.236320007795   -2.387406973756
 H    0.807994374688   -1.950160924244   -0.897355773206
 H    1.232146678994   -0.399433241367   -1.592489220386
 H    1.671439370457    1.461526516897    2.847355751315
 H    1.978580086181    1.346297695269    0.091866597261
