20

 C   -1.862988506272    0.686680068659   -1.414464745572
 C   -2.316271490238   -0.734099938220   -1.073599917839
 C   -1.495084210233   -1.480072346636   -0.011539257633
 C    0.023886027271   -1.504696819021   -0.198081102058
 N    0.693987912048   -0.267306692033    0.180940494134
 N    0.459969169301    0.294670171327    1.347811302828
 N    1.217054186550    1.308071770715    1.470886951815
 C    1.983807786479    1.420022925261    0.365306849735
 C    1.656953736370    0.401935315426   -0.472320598383
 H   -2.573860098245    1.150504019562   -2.091104624752
 H   -0.896794509602    0.696905838521   -1.905545892695
 H   -1.790553843888    1.308843226538   -0.528698721941
 H   -3.346304491418   -0.708102151154   -0.729809716738
 H   -2.321724328117   -1.323069698494   -1.989380382768
 H   -1.702652737986   -1.073848995897    0.971404620567
 H   -1.825442408192   -2.514929533260    0.008046533564
 H    0.445904670330   -2.301525347049    0.401921705685
 H    0.288706293966   -1.698209493347   -1.230316857293
 H    2.698416900161    2.205353784020    0.248706287298
 H    2.009757305490    0.113083965579   -1.438186617956
