20

 C   -1.822064298133    0.400025632593   -2.623483978190
 C   -2.010182788995    0.017431318162   -1.154149167527
 C   -1.292245167376   -1.271713724105   -0.740958149810
 C    0.233831327914   -1.184097126622   -0.692239386757
 N    0.716083230212   -0.231073572524    0.295191717404
 N    0.574443555314   -0.481871762097    1.580107123109
 N    1.059501945843    0.489545938002    2.239837745014
 C    1.537497327550    1.411661896231    1.376816172634
 C    1.320781960087    0.954130269418    0.115947548924
 H   -2.393638066186    1.290044817015   -2.865735611913
 H   -2.157196365907   -0.397102992842   -3.281127007951
 H   -0.783774575937    0.610074664362   -2.864302459717
 H   -1.692137927976    0.835044974978   -0.514100059775
 H   -3.071311312443   -0.115726601280   -0.963972385109
 H   -1.638042068985   -1.579709280866    0.239525587826
 H   -1.550416179690   -2.071947012848   -1.431032249831
 H    0.651208965240   -2.149734100784   -0.441058515488
 H    0.647368239848   -0.885149731399   -1.645856269323
 H    1.996012251238    2.316512734080    1.711464696499
 H    1.539024703560    1.352930662085   -0.850568507213
