20

 C   -2.105411517171    0.744963275939   -2.952111254915
 C   -1.428325947887    0.577178099436   -1.591435198948
 C   -0.913228445971   -0.856490124784   -1.345311340857
 C    0.536045277302   -0.932641058124   -0.871759430707
 N    0.742172881254   -0.302973787450    0.424082902523
 N    0.178742698970   -0.808725034167    1.501456352504
 N    0.505550763983   -0.097627502148    2.502399653238
 C    1.307122786878    0.906016726244    2.086033322575
 C    1.467597798817    0.780666771321    0.742715926962
 H   -2.464052956460    1.760232302528   -3.088126261720
 H   -2.956208648411    0.077237294583   -3.053380371454
 H   -1.415028405744    0.524491566506   -3.761557770947
 H   -0.602845377815    1.282145842665   -1.528850248540
 H   -2.116591175872    0.860900801207   -0.802621183529
 H   -1.539422268196   -1.371229375636   -0.626650848524
 H   -0.965929639698   -1.431369236227   -2.266789522594
 H    0.853527276043   -1.963791004511   -0.790326973092
 H    1.194828574322   -0.433539550592   -1.570805526726
 H    1.705614131441    1.630375152967    2.762391479123
 H    2.014824781817    1.344665923015    0.019461469473
