20

 C   -1.741703742336    0.603188589252   -1.607319869150
 C   -2.352863633948   -0.641023725878   -0.957908730219
 C   -1.421750003167   -1.551749860176   -0.118647975151
 C    0.087099940124   -1.461479820264   -0.353094255806
 N    0.695786353564   -0.241728925206    0.161292694496
 N    0.423550723604    0.189181111762    1.374985376048
 N    1.129863596288    1.219490050116    1.609079647064
 C    1.897620475876    1.480003769152    0.529215721380
 C    1.627360066102    0.537191022833   -0.410384922895
 H   -2.504194402281    1.125469885530   -2.176482190557
 H   -0.944189982578    0.350359403529   -2.298837901824
 H   -1.345489444001    1.296043879056   -0.874419069185
 H   -3.182862394674   -0.336752182467   -0.329189023308
 H   -2.789078579474   -1.240456439499   -1.753070436277
 H   -1.587526620652   -1.370894567609    0.935685539676
 H   -1.697389066611   -2.587378300523   -0.292767013083
 H    0.567431534799   -2.301541892746    0.134094060871
 H    0.334132279233   -1.512653832288   -1.405374624749
 H    2.572960282627    2.307123637597    0.500700529768
 H    1.998446924889    0.366889501074   -1.397248282299
