20

 C   -2.086222012090    0.870422563727   -0.996795549487
 C   -2.220940865962   -0.654623002184   -1.001521995632
 C   -1.587785329439   -1.378966645932    0.195526695820
 C   -0.075023935448   -1.591532819666    0.137990959065
 N    0.708499865136   -0.367830384050    0.205582549350
 N    0.629717620370    0.414548743501    1.260733937221
 N    1.411022765359    1.402644112622    1.092626250589
 C    2.030682267606    1.275131028711   -0.100412624913
 C    1.583988756787    0.130736016714   -0.681207125855
 H   -2.637180126120    1.297534813496   -1.829283106923
 H   -1.057946519987    1.198415469586   -1.080175920590
 H   -2.491124420159    1.290558313432   -0.081553075974
 H   -3.279265844951   -0.900603741933   -1.010756545801
 H   -1.814256036390   -1.058670226051   -1.927391575961
 H   -1.836327138754   -0.865428587604    1.118043368545
 H   -2.020677881270   -2.373792820803    0.268731782444
 H    0.234657917615   -2.223861538327    0.960175260730
 H    0.203904638162   -2.087250399075   -0.783253317873
 H    2.738738068679    1.994188350073   -0.450573709081
 H    1.804737245486   -0.348717713751   -1.609710310494
