20

 C   -1.691171049439    0.430386709220   -2.259321268685
 C   -2.176955678910   -0.294057338531   -1.002555451431
 C   -1.309261065446   -1.472458517801   -0.532450430068
 C    0.203441022267   -1.285025194277   -0.619749627377
 N    0.695613247588   -0.202534056617    0.222946497724
 N    0.387518977595   -0.159214231229    1.502404307199
 N    0.973908680272    0.837072620223    2.030013460817
 C    1.701659733787    1.468132252502    1.084115161840
 C    1.531177178507    0.801397247555   -0.087368738111
 H   -2.419617799472    1.171635038583   -2.570968363442
 H   -1.548074497393   -0.255660560907   -3.090917150162
 H   -0.756189023220    0.952182214691   -2.089446753804
 H   -2.256439447032    0.432339583110   -0.199269070682
 H   -3.181473759763   -0.671435381644   -1.169265637292
 H   -1.572471147196   -1.727417562347    0.486475330875
 H   -1.530523375160   -2.348103873101   -1.139813438553
 H    0.699987077601   -2.198561341295   -0.316769791836
 H    0.515817400453   -1.061010142453   -1.629645009825
 H    2.281741320606    2.337941742035    1.302898039547
 H    1.917093209227    0.950504265450   -1.072057566429
