20

 C   -2.236355655771    0.988956486083   -0.902939038172
 C   -2.105435707811   -0.530103787318   -1.033245656813
 C   -1.661651513654   -1.232855138911    0.264958562071
 C   -0.176832940431   -1.588518729054    0.324414389473
 N    0.698931600011   -0.429294617315    0.250723967679
 N    0.754380654442    0.421967519646    1.253537959697
 N    1.563133769634    1.354635710623    0.951734505426
 C    2.064469075327    1.118738478484   -0.279783849118
 C    1.510259225078   -0.032693051771   -0.742185998424
 H   -2.544275346929    1.431581002696   -1.845343879152
 H   -1.302480817694    1.451942231342   -0.604937913883
 H   -2.983002523900    1.245492248551   -0.157484200829
 H   -3.067390370140   -0.931716197852   -1.337862878082
 H   -1.416138695906   -0.771287676418   -1.839572599080
 H   -1.911322134449   -0.625651089096    1.128021137954
 H   -2.200351504282   -2.169810723607    0.380176144205
 H    0.048835318139   -2.108140396062    1.245935589114
 H    0.092432071267   -2.237049125776   -0.499310772567
 H    2.772814507059    1.774178485001   -0.737555487571
 H    1.623129790676   -0.580738560995   -1.651863240527
