20

 C   -2.187219862162    0.946833213743   -1.061450405235
 C   -2.046105339873   -0.575431867413   -1.127156632696
 C   -1.671692335010   -1.227307096178    0.218630879401
 C   -0.191754766424   -1.575470615226    0.371318057422
 N    0.685262539733   -0.416901884552    0.304173969857
 N    0.686760466874    0.467596907839    1.279343520507
 N    1.509829797214    1.391099491693    0.988258582973
 C    2.073610685075    1.117005500915   -0.207873878144
 C    1.546969032338   -0.051884293203   -0.658111961356
 H   -2.441861990348    1.352586545983   -2.035809922551
 H   -1.272568834590    1.424299717165   -0.728587429367
 H   -2.975500431375    1.228066410815   -0.369668604336
 H   -2.989436379292   -0.991964696625   -1.467779518564
 H   -1.313864570294   -0.843928113983   -1.885589859059
 H   -1.968559369913   -0.589072088865    1.043560669714
 H   -2.214281946372   -2.161230318185    0.339865659541
 H   -0.015957149882   -2.060979447294    1.321818063550
 H    0.123030879879   -2.252083011027   -0.412740980197
 H    2.803247148252    1.759326595302   -0.650607658316
 H    1.707881278541   -0.630053501358   -1.541524826036
