20

 C   -2.105713332806    0.925997123553   -2.869426563562
 C   -1.555749977138    0.645022862622   -1.470346466876
 C   -1.031951084893   -0.798200165654   -1.302199780520
 C    0.446648370509   -0.894488871001   -0.931959798085
 N    0.741499526152   -0.327273172553    0.375204288350
 N    0.259600021679   -0.890403001866    1.463674420954
 N    0.652358991301   -0.226089256982    2.472924142178
 C    1.416942302965    0.803751351002    2.050900466081
 C    1.482679169021    0.745359131907    0.695077615364
 H   -2.462963416693    1.947560659747   -2.951995624000
 H   -2.934835626068    0.265015102888   -3.104624116798
 H   -1.341985422647    0.779184849394   -3.628650004655
 H   -0.762327024449    1.355994342877   -1.256254822120
 H   -2.328656312020    0.841392202242   -0.735206177506
 H   -1.603423873735   -1.329037772832   -0.550614878508
 H   -1.158312847269   -1.349777623945   -2.230370732327
 H    0.765516502480   -1.928275278840   -0.919754822886
 H    1.059777077329   -0.364021516075   -1.649529186449
 H    1.858610060292    1.497661618548    2.732337076865
 H    1.975088184483    1.348185432276   -0.036237045253
