20

 C   -1.685777081938    0.535041015773   -2.227250500219
 C   -2.174414353133   -0.247117586386   -1.004986445115
 C   -1.310694295019   -1.450624744704   -0.592158294451
 C    0.202745788608   -1.263889459382   -0.672632523197
 N    0.696512738691   -0.216395196978    0.211952521684
 N    0.370480106988   -0.211539472015    1.487337343673
 N    0.964447269211    0.757897898483    2.054961317612
 C    1.707051226890    1.415583554384    1.139320885421
 C    1.545096461973    0.789503497518   -0.055033464508
 H   -2.418263007940    1.283614970337   -2.512096337596
 H   -1.534397583149   -0.115412864435   -3.086909208899
 H   -0.755002419455    1.055337706098   -2.030571350930
 H   -2.246078886763    0.440296431958   -0.166751235299
 H   -3.182254721314   -0.610033549892   -1.183651687927
 H   -1.573646495700   -1.756436340333    0.412746860712
 H   -1.536108238790   -2.291116918274   -1.245960404950
 H    0.697864282683   -2.190029704936   -0.407031410894
 H    0.514846757675   -1.000696209819   -1.673094327656
 H    2.293372082119    2.271420063805    1.394120290559
 H    1.946153501631    0.965838609846   -1.028767520521
