20

 C   -1.986962192285    0.464536978938   -2.815009571406
 C   -1.876782282376    0.240154199777   -1.305636161549
 C   -1.224456161171   -1.100990874838   -0.933990163648
 C    0.297361423222   -1.048722241706   -0.789346349452
 N    0.731697436763   -0.236611447839    0.336356102530
 N    0.502171246190   -0.639035801142    1.569030056302
 N    0.968454576258    0.227080961600    2.372935061033
 C    1.530253331881    1.228788394383    1.662473472818
 C    1.381627645278    0.938277186628    0.343638107365
 H   -2.439166221042    1.426262137764   -3.035522969978
 H   -2.600014829167   -0.303922240374   -3.276135078244
 H   -1.014089882507    0.442861008646   -3.300305484717
 H   -1.335146072625    1.059301995271   -0.842519586760
 H   -2.875802366883    0.270815588760   -0.881668862622
 H   -1.626078853838   -1.463941462594    0.005021268506
 H   -1.461376038996   -1.850479713761   -1.684653397124
 H    0.693304345728   -2.044440985014   -0.642226167493
 H    0.764590658142   -0.634234725465   -1.673755569362
 H    1.991871373226    2.068318524491    2.134744167295
 H    1.674490935784    1.443617079600   -0.550603376381
