20

 C   -1.941866241507    0.739776178049   -1.268303789443
 C   -2.370556945307   -0.698216905541   -0.970262118800
 C   -1.486359964806   -1.489749842255    0.004868534511
 C    0.019156184139   -1.494621355776   -0.270355856216
 N    0.704352322188   -0.271288614214    0.127016243492
 N    0.537047742769    0.233198260394    1.331179418463
 N    1.294626801921    1.245661757372    1.458545394715
 C    1.992766058417    1.416681391508    0.315734655591
 C    1.622136959608    0.437015058194   -0.549262842507
 H   -2.694325204134    1.232374683352   -1.876515671684
 H   -1.007582190581    0.779852103375   -1.816609832061
 H   -1.817007768026    1.317811593947   -0.358634911616
 H   -3.378062054520   -0.692427742015   -0.564097836778
 H   -2.430736942287   -1.243202308191   -1.910795705175
 H   -1.639215595249   -1.135516341921    1.017372609772
 H   -1.810094883625   -2.526928607728   -0.009652577248
 H    0.479457193001   -2.315628665922    0.265451603149
 H    0.223329960002   -1.637434589784   -1.324384189327
 H    2.694625841074    2.212754610420    0.194811467947
 H    1.918163282095    0.197836597874   -1.547253899837
