20

 C   -1.752303446582    0.584970878288   -2.088202163142
 C   -2.271814122995   -0.268411014995   -0.929206209372
 C   -1.375898292364   -1.443120534622   -0.488244358742
 C    0.131498984888   -1.274676622759   -0.661808438900
 N    0.696003919160   -0.221762506307    0.174469754001
 N    0.414867269524   -0.164044382078    1.459395197821
 N    1.075625390920    0.789460561377    1.978156384952
 C    1.826049106406    1.375757440915    1.021156577979
 C    1.590969995430    0.725817116241   -0.148311011337
 H   -2.491587247717    1.331113012113   -2.361079222514
 H   -1.551262428164   -0.010899906462   -2.975688511989
 H   -0.844062332745    1.113620367259   -1.823045378327
 H   -2.425829720817    0.388390191271   -0.078275150792
 H   -3.249264315343   -0.667905461718   -1.180926583757
 H   -1.587790538691   -1.696567430871    0.542238316927
 H   -1.630379046601   -2.320700906112   -1.079550629878
 H    0.627264319964   -2.204335815050   -0.410047045232
 H    0.386643070225   -1.032474397138   -1.683374246259
 H    2.465004378205    2.205556716154    1.231368818958
 H    1.966781343988    0.853730982914   -1.139886424301
