20

 C   -2.311713470306    0.960870293367   -2.642381042949
 C   -1.061578761667    0.787788275374   -1.780382208382
 C   -0.692341002978   -0.682874496556   -1.576411820446
 C    0.671167998159   -0.902226956761   -0.925087056382
 N    0.750716113618   -0.369652576722    0.426336782053
 N    0.085093093677   -0.948561361022    1.403986853933
 N    0.298386988222   -0.303877993603    2.477870732085
 C    1.123538471952    0.731594987882    2.212401576506
 C    1.420878097816    0.698308330191    0.887010585669
 H   -2.558141261781    2.010520749410   -2.766073707277
 H   -3.169791466159    0.470855526307   -2.191457252657
 H   -2.168267894885    0.534472557335   -3.631092293021
 H   -0.230211175668    1.307090016176   -2.254786820449
 H   -1.213837215164    1.263456888215   -0.816486466859
 H   -1.451400150319   -1.179802128425   -0.981500008105
 H   -0.666845646650   -1.187940315715   -2.539843090605
 H    0.897756655324   -1.958370899321   -0.870779028664
 H    1.452891588673   -0.421595860612   -1.499548051036
 H    1.441776255273    1.411341649344    2.972428645384
 H    2.028534950190    1.314824881837    0.261409788833
