20

 C   -3.076769918758    1.075399535742   -1.062261394922
 C   -2.033513586028   -0.041445648335   -1.072735352060
 C   -1.772948558990   -0.616605572924    0.323707368212
 C   -0.450033593000   -1.370059858635    0.457917966469
 N    0.712228817278   -0.508504866459    0.307766752095
 N    0.982639281195    0.401840447756    1.220067331657
 N    2.035430830685    1.023351210502    0.874653565141
 C    2.486174681083    0.510532624139   -0.290490551025
 C    1.635884556680   -0.480292746036   -0.666192211159
 H   -3.260654401930    1.447529224670   -2.065005256671
 H   -2.741124313622    1.908809973119   -0.453432581141
 H   -4.024835924189    0.729981860582   -0.658915283513
 H   -2.344413101207   -0.838682424962   -1.744357991111
 H   -1.109253758016    0.360492692958   -1.478120363565
 H   -1.772749766867    0.181931598400    1.058116933625
 H   -2.574976395021   -1.295653281189    0.601699417606
 H   -0.382760094828   -1.839509685939    1.430056882148
 H   -0.364576266044   -2.146252135882   -0.292481825708
 H    3.367862885643    0.878921469781   -0.767825334594
 H    1.612685911388   -1.140624569361   -1.505320198730
