20

 C   -2.034966825004    0.589252312186   -2.758023693273
 C   -1.897751987326    0.296493511906   -1.262697908549
 C   -1.239519449597   -1.059887588655   -0.963182043464
 C    0.284364011590   -1.012420759221   -0.839880354016
 N    0.735633347359   -0.250443074787    0.314213250748
 N    0.503286132611   -0.694259595241    1.531979819899
 N    0.994493817941    0.129826740130    2.364807833604
 C    1.573372450033    1.146187331794    1.689445389138
 C    1.411997287671    0.908630101898    0.361621893340
 H   -2.483833484045    1.562984445301   -2.926423956282
 H   -2.662310590445   -0.153531275429   -3.241411361997
 H   -1.071605124196    0.582961394888   -3.262144619642
 H   -1.344800114868    1.093112991934   -0.774530824659
 H   -2.888157254179    0.310536500326   -0.818294785615
 H   -1.627815802817   -1.468509710682   -0.037542513558
 H   -1.486358480937   -1.772491435962   -1.745822431188
 H    0.683770146884   -2.013324791154   -0.745700467989
 H    0.736695739726   -0.556689877528   -1.711626655380
 H    2.055042714088    1.957518820644    2.190212311170
 H    1.710340899643    1.441442066411   -0.514744615842
