20

 C   -1.684997611707    0.541055846577   -2.359503737294
 C   -2.110493900647   -0.142692676728   -1.058981760279
 C   -1.300784998778   -1.389564283768   -0.682108100922
 C    0.218390164130   -1.231833740944   -0.700497139289
 N    0.697608190245   -0.227919420524    0.239821723196
 N    0.433280568483   -0.341585484059    1.524646941274
 N    0.979459381791    0.627081070635    2.139396499408
 C    1.626005648504    1.405853097550    1.246252013827
 C    1.451344445621    0.859790023870    0.014613780286
 H   -2.373910845387    1.340926250389   -2.610347018739
 H   -1.674896328037   -0.156802935654   -3.193415052158
 H   -0.697231652615    0.983131746570   -2.282617176546
 H   -2.056126622131    0.576167536637   -0.246627125200
 H   -3.153705801733   -0.435827005624   -1.133459469021
 H   -1.602351307313   -1.731053411101    0.300854541391
 H   -1.533473544990   -2.193139110574   -1.378207777142
 H    0.687003178303   -2.174587475617   -0.448681256010
 H    0.574305917671   -0.939410824284   -1.678177970512
 H    2.159132586747    2.283193070035    1.541084073513
 H    1.788014870761    1.140089410801   -0.959223847533
