20

 C   -2.001471636502    0.771433714904   -1.184343257512
 C   -2.339609461504   -0.708451326673   -0.992809429729
 C   -1.511064623973   -1.464285055321    0.053806543776
 C    0.000725361291   -1.526514824875   -0.173943371838
 N    0.708802795053   -0.293125542598    0.142299602705
 N    0.548984899673    0.292160779249    1.310097361690
 N    1.319286854278    1.301375196150    1.368980348025
 C    2.018845328495    1.386834123549    0.217495343048
 C    1.634894252004    0.356494358351   -0.580362885190
 H   -2.727182522605    1.236983108486   -1.844206692613
 H   -1.022840895071    0.912700969268   -1.627438714656
 H   -2.015944331266    1.307328124512   -0.240817225392
 H   -3.382930887971   -0.796864353687   -0.702767027837
 H   -2.251525837971   -1.219358558180   -1.950580971889
 H   -1.689574597279   -1.051662457012    1.040238438915
 H   -1.859863592720   -2.493237326229    0.082085426114
 H    0.424148476797   -2.312329011732    0.439333888613
 H    0.228111762078   -1.758955043951   -1.207033828411
 H    2.731184884492    2.163655745834    0.043986115593
 H    1.927049643639    0.046888478389   -1.559969669442
