20

 C   -1.926919736671    0.681779861866   -1.341840827075
 C   -2.301481455858   -0.768522940511   -1.029255341073
 C   -1.536927626131   -1.432863983547    0.122723156216
 C   -0.017719286366   -1.537599810291   -0.026106666953
 N    0.696736638028   -0.288911394140    0.203262305268
 N    0.492242690273    0.408677527808    1.300106291932
 N    1.277267660723    1.408276882159    1.298101528313
 C    2.026406200560    1.376868302589    0.175378152302
 C    1.663396776586    0.277908306224   -0.535806596527
 H   -2.612357347712    1.093734756770   -2.076012464664
 H   -0.926616402764    0.767400548192   -1.748873591195
 H   -1.975233673144    1.303723736367   -0.454091853834
 H   -3.358842543336   -0.814074987982   -0.783075565067
 H   -2.178025906913   -1.368961237809   -1.929230140189
 H   -1.753090440017   -0.924740798889    1.055456157354
 H   -1.906030575968   -2.449400482348    0.232143901793
 H    0.363422497186   -2.266086672360    0.678760860398
 H    0.251962256824   -1.871507221391   -1.020502687903
 H    2.757414333659    2.125589277170   -0.039257142226
 H    1.994409421450   -0.128344913117   -1.466525043285
