20

 C   -2.119554939626    0.784538080511   -2.935146384947
 C   -1.307607997922    0.622316447032   -1.649899262278
 C   -0.815660087705   -0.820009625104   -1.429578212299
 C    0.602287045496   -0.922421701720   -0.874344321245
 N    0.742476114073   -0.315608964387    0.441193192493
 N    0.126143166400   -0.840583155837    1.479758923349
 N    0.394960052484   -0.143313624444    2.507433291676
 C    1.212008164021    0.870139050921    2.148982888977
 C    1.443104689656    0.766933889969    0.813938008271
 H   -2.475544941893    1.803823044108   -3.046739466774
 H   -2.986416924948    0.129437886555   -2.941212050367
 H   -1.517834575978    0.544029853751   -3.807078514057
 H   -0.454107813701    1.295269167718   -1.702081592694
 H   -1.890890029319    0.948281908310   -0.795424305463
 H   -1.492185635460   -1.360804651910   -0.778398196924
 H   -0.808089765088   -1.352380806907   -2.378261275089
 H    0.902717434334   -1.958491172395   -0.791395247204
 H    1.304450349381   -0.420821640950   -1.527661512936
 H    1.570816598880    1.585494369210    2.856440428140
 H    2.023735804425    1.345258443145    0.129046170956
