20

 C   -1.749360134767    0.566714662174   -2.183929705685
 C   -2.213357105178   -0.196889737917   -0.942158442839
 C   -1.362866444677   -1.416401912897   -0.552360520151
 C    0.150666554124   -1.261552525343   -0.679482021040
 N    0.696620927854   -0.228546787271    0.191814674418
 N    0.424441782044   -0.228972889250    1.480306512491
 N    1.056543873063    0.726292888061    2.030394935667
 C    1.774701907078    1.376724019516    1.090119520196
 C    1.551901782031    0.763967083681   -0.101810863787
 H   -2.468731566102    1.336793076296   -2.442214763956
 H   -1.648541620835   -0.087546433073   -3.046807502097
 H   -0.797237566464    1.059327510188   -2.022515665470
 H   -2.239577887217    0.495173013116   -0.105570109345
 H   -3.234905784367   -0.535977481884   -1.085235673885
 H   -1.603510622621   -1.716748973269    0.459656664943
 H   -1.625589966735   -2.254013566095   -1.196146106519
 H    0.632724084895   -2.199160646533   -0.431504825743
 H    0.436871993888   -1.002030337399   -1.688581203759
 H    2.385867933811    2.220130633458    1.327047681337
 H    1.913753893896    0.943284533969   -1.090672094283
