20

 C   -1.970163261027    0.485091082276   -2.679914735605
 C   -1.977329624644    0.153899615800   -1.186177930473
 C   -1.276383916954   -1.166530727214   -0.841862069798
 C    0.250084060852   -1.087803536375   -0.780979490319
 N    0.731311895337   -0.235027799164    0.294508903874
 N    0.582359794309   -0.605895043700    1.549233038410
 N    1.074659464976    0.293030695137    2.300011979575
 C    1.565899059190    1.287992138173    1.530329386512
 C    1.349868604666    0.954991539809    0.230943953049
 H   -2.478832380497    1.424348259067   -2.871760163677
 H   -2.475723919908   -0.287943375611   -3.251031414625
 H   -0.961421320285    0.577217894690   -3.074103098125
 H   -1.533552809568    0.966966108220   -0.619373338818
 H   -3.009193362648    0.089011337075   -0.853820351458
 H   -1.623231005319   -1.526990030302    0.119949330590
 H   -1.539214271673   -1.925951841996   -1.574320167410
 H    0.667033611965   -2.073291238656   -0.623597589723
 H    0.665489613265   -0.697121855757   -1.700693529611
 H    2.032106896657    2.151970285868    1.951240303155
 H    1.576781360618    1.441186572803   -0.692638824813
