20

 C   -1.713050385316    0.424619371493   -2.150994089514
 C   -2.236878537288   -0.387710266878   -0.964684103267
 C   -1.317331158948   -1.510764389774   -0.444340113048
 C    0.187776050086   -1.303411631400   -0.592760539071
 N    0.696693928001   -0.190757964542    0.200403506355
 N    0.369113036552   -0.065972540540    1.469458212719
 N    0.991884896103    0.929413119846    1.955346612530
 C    1.762577424085    1.477703892442    0.991875274049
 C    1.582648852672    0.757082496069   -0.145567855867
 H   -2.466216725940    1.134184521551   -2.477396720022
 H   -1.473718601064   -0.207402419766   -3.002927795300
 H   -0.827083348109    0.992108349515   -1.891622324627
 H   -2.436866032582    0.302827902926   -0.151306604377
 H   -3.193052159678   -0.831296016627   -1.224171731669
 H   -1.544356696452   -1.713604020460    0.594036327210
 H   -1.532188342673   -2.426599685133   -0.991000902543
 H    0.706426219908   -2.202532010163   -0.282591778081
 H    0.460135526812   -1.104785562520   -1.619315375607
 H    2.376102960437    2.332579543109    1.175636502404
 H    1.990035723735    0.837254241030   -1.129665123916
